LTspice 26.0.1 for Windows
Circuit: Z:\home\patryk\Desktop\Wrocław studia\NAMI\spin-coater-koncowka-mocy-BLDC\Simulation\symulacja.net
Start Time: Fri Apr 24 11:58:21 2026
solver = Normal
Maximum thread count: 24
tnom = 27
temp = 27
method = trap
Direct Newton iteration succeeded in finding operating point.
Total elapsed time: 2.384 seconds.

Files loaded:
Z:\home\patryk\Desktop\Wrocław studia\NAMI\spin-coater-koncowka-mocy-BLDC\Simulation\symulacja.net
C:\users\patryk\AppData\Local\LTspice\lib\cmp\standard.dio
C:\users\patryk\AppData\Local\LTspice\lib\cmp\standard.bjt
C:\users\patryk\AppData\Local\LTspice\lib\cmp\standard.mos

